cse-runner-app/src/test/resources/com/farao_community/farao/cse/runner/app/util/20210913_1630_184_Initial_CSE1.uct
##C 2007.05.01
Generated by Convergence, RTE's network analysis tool (2022.02.10 04:49)
Informations      : 20220210_1930_184_Initial_CSE1.uct
Date of situation : 2022/02/10 19:30
##N
##ZME
0ANDRI51 Andrijevica  0 0        1.98760 0.00000 0.00000 0.00000 
0BAR  51 Bar          0 0        40.3819 5.66713 0.00000 0.00000 
0BERAN51 Berane       0 0        12.7522 1.41930 0.00000 0.00000 
0BREZN51 Brezna       0 0        1.18075 0.00000 0.00000 0.00000 
0BUDVA51 Budva        0 0        40.9919 4.15724 0.00000 0.00000 
0CETIN51 Cetinje      0 0        10.8433 1.67095 0.00000 0.00000 
0DANIL51 Danilovgrad  0 0        10.3513 3.27143 0.00000 0.00000 
0ETREB51 EVP Trebjesi 0 0        2.12121 0.89000 0.00000 0.00000 
0HNOVI51 Herceg Novi  0 0        30.6799 2.95939 0.00000 0.00000 
0HPERU21 HE Perucica  0 0        0.00000 0.00000 0.00000 0.00000 
0HPERU51 HE Perucica  0 2 116.00 0.00000 0.00000 -164.00 8.01640 5.00000 -210.00 12.0000 -75.000 
0HPERU52 HE Perucica  0 2 116.00 0.00000 0.00000 -73.000 6.00000 2.00000 -96.000 6.00000 -39.000 
0HPIVA21 HE Piva      0 2 239.00 0.00000 0.00000 -74.000 4.00000 -70.000 -114.00 4.00000 -37.000 
0HPIVA22 HE Piva      0 2 239.00 0.00000 0.00000 -146.00 8.00000 -140.00 -228.00 8.00000 -74.000 
0KAP  51 KAP          0 0        7.49755 17.3900 0.00000 0.00000 
0KAP  5T KAP T-spoj   0 0        0.00000 0.00000 0.00000 0.00000 
0KOTOR51 Kotor        0 0        17.9081 2.23464 0.00000 0.00000 
0KRNOV51 VE Krnovo    0 2 117.00 0.00000 5.30000 -3.9370 -10.598 0.00000 -72.000 0.00000 -34.000 
0LASTV11 Lastva       0 0        0.00000 0.00000 0.00000 0.00000 
0LASTV51 Lastva       0 0        0.60022 0.04026 0.00000 0.00000 
0MOJKO21 Mojkovac     0 0        0.00000 0.00000 0.00000 0.00000 
0MOJKO51 Mojkovac     0 0        5.17564 0.35231 0.00000 0.00000 
0MOZUR51 VE Mozura    0 2 112.00 0.00000 0.00000 -0.5480 -4.3057 0.00000 -48.000 0.00000 -15.000 
0NIKS251 Niksic 2 - K 0 0        10.2233 1.79174 0.00000 0.00000 
0NIKSI51 Niksic 1     0 0        27.1967 5.74766 0.00000 0.00000 
0NIKSZ52 Niksic Zelje 0 0        0.49853 0.57000 0.00000 0.00000 
0PLJE211 Pljevlja 2   0 0        0.00000 0.00000 0.00000 0.00000 
0PLJE251 Pljevlja 2   0 0        0.00000 0.00000 0.00000 0.00000 
0PLJEV51 Pljevlja 1   0 0        18.1541 5.17390 0.00000 0.00000 
0PODG121 Podgorica 1  0 0        0.00000 0.00000 0.00000 0.00000 
0PODG151 Podgorica 1  0 0        42.7532 6.23082 0.00000 0.00000 
0PODG211 Podgorica 2  0 0        0.00000 0.00000 0.00000 0.00000 
0PODG212 Podgorica 2  0 0        0.00000 0.00000 0.00000 0.00000 
0PODG251 Podgorica 2  0 0        0.00000 0.00000 0.00000 0.00000 
0PODG252 Podgorica 2  0 0        0.00000 0.00000 0.00000 0.00000 
0PODG351 Podgorica 3  0 0        37.7153 2.71781 0.00000 0.00000 
0PODG451 Podgorica 4  0 0        50.2904 3.19091 0.00000 0.00000 
0PODG551 Podgorica 5  0 0        31.9197 2.82853 0.00000 0.00000 
0RIBAR11 Ribarevine   0 0        0.00000 0.00000 0.00000 0.00000 
0RIBAR51 Ribarevine   0 0        12.8998 2.49636 0.00000 0.00000 
0ROZAJ51 Rozaje       0 0        0.00000 0.00000 0.00000 0.00000 
0TIVAT51 Tivat        0 0        23.9791 2.46616 0.00000 0.00000 
0TPLJE21 TE Pljevlja  0 2 237.00 1.39785 6.90000 -207.28 10.0000 -160.00 -225.00 10.0000 -109.00 
0ULCIN51 Ulcinj       0 0        0.00000 0.00000 0.00000 0.00000 
0VILUS51 Vilusi       0 0        0.81669 0.32211 0.00000 0.00000 
0VILUS5K Vilusi KT    0 0        0.00000 0.00000 0.00000 0.00000 
0VIRPA51 Virpazar     0 0        5.10677 1.22805 0.00000 0.00000 
0VRANI5K Vranici KT   0 0        0.00000 0.00000 0.00000 0.00000 
##ZAL
AAES  5  AES          0 0        24.6992 0.00000 0.00000 0.00000 
AARSTI5  HPP ARSTI    0 0        0.00000 0.00000 0.00000 0.00000 0.00000 -100.00 100.000 -100.00 
AASHT15  HPP ASHTA 1  0 0        0.00000 0.00000 0.00000 0.00000 0.00000 -50.000 5.00000 -10.000 
AASHT25  HPP ASHTA 2  0 0        0.00000 0.00000 0.00000 0.00000 0.00000 -50.000 5.00000 -10.000 
ABABIC2  BABIC        0 0        0.00000 0.00000 0.00000 0.00000 
ABABIC5  BABIC        0 0        9.87965 4.44677 0.00000 0.00000 
ABALSH5  BALSH        0 0        17.2894 2.22339 0.00000 0.00000 
ABANJE5  HPP BANJE    0 2 109.91 1.23495 0.00000 -66.056 -8.4117 0.00000 -70.000 5.00000 -10.000 
ABCURR5  B CURRI      0 0        4.93982 2.22339 0.00000 0.00000 
ABELE 5  HPP BELE     0 2 115.00 0.00000 0.00000 -8.3879 3.26866 0.00000 -16.000 5.00000 -10.000 
ABELSH5  BELSH        0 0        8.94534 0.00000 0.00000 0.00000 
ABERAT5  BERAT        0 0        9.55127 0.00000 0.00000 0.00000 
ABISHN5  HPP Bishnice 0 2 115.00 0.00000 0.00000 -2.9315 2.42057 0.00000 -8.0000 5.00000 -10.000 
ABISTR3  BISTRRIC     0 0        0.00000 0.00000 0.00000 0.00000 
ABISTR5  HPP BISTRIC  0 2 110.87 3.70487 0.00000 -21.333 -10.000 0.00000 -27.000 5.00000 -10.000 
ABULQI5  BULQIZ       0 0        3.70487 1.11169 0.00000 0.00000 
ABURRE2  BURREL       0 0        0.00000 0.00000 0.00000 0.00000 
ABURRL5  BURREL       0 0        23.6943 4.44677 0.00000 0.00000 
ABUSHA5  BUSHAT       0 0        2.05033 0.00000 0.00000 0.00000 
ACEMER5  HPP Cemerica 0 2 115.00 0.00000 0.00000 -5.0344 5.00000 0.00000 -12.000 5.00000 -10.000 
ACERIK5  CERRIK       0 0        7.44500 1.11169 0.00000 0.00000 
ACERRU5  HPP CERRU    0 2 114.93 0.00000 0.00000 -7.4487 -10.000 0.00000 -70.000 5.00000 -10.000 
ACOROV5  COROVODE     0 0        0.00000 0.00000 0.00000 0.00000 
ADARDA5  HPP DARDHA   0 2 115.00 0.00000 0.00000 -5.6777 -3.2984 0.00000 -8.0000 5.00000 -10.000 
ADARSI5  HPP Darsi    0 2 114.06 0.00000 0.00000 -1.3084 -8.2322 0.00000 -8.0000 5.00000 -10.000 
ADEGSK5  DEG SK       0 0        0.00000 0.00000 0.00000 0.00000 
ADENAS5  HPP DENAS    0 0        0.00000 0.00000 0.00000 0.00000 0.00000 -8.0000 5.00000 -10.000 
ADGSHU5  DEG SHU      0 0        0.00000 0.00000 0.00000 0.00000 
ADRAGO5  HPP DRAGBI   0 0        0.00000 0.00000 0.00000 0.00000 0.00000 -8.0000 5.00000 -10.000 
ADRENO5  DRENOVE      0 0        1.23495 0.00000 0.00000 0.00000 
ADSHK25  DEG SHK      0 0        0.00000 0.00000 0.00000 0.00000 
AEGNAT5  HPP EGNATIA  0 0        0.00000 0.00000 0.00000 0.00000 0.00000 -8.0000 5.00000 -10.000 
AELBS12  ELBASAN 1    0 0        0.00000 0.00000 0.00000 0.00000 
AELBS15  ELBASAN 1    0 0        8.38286 2.22339 0.00000 0.00000 
AELBS21  ELBASAN 2    0 0        0.00000 0.00000 0.00000 0.00000 
AELBS22  ELBASAN 2    0 0        0.00000 0.00000 0.00000 0.00000 
AELKOM5  ELKOM        0 0        11.1146 5.55847 0.00000 0.00000 
AELKUR2  ELKURUM      0 0        9.87965 0.00000 0.00000 0.00000 
AERSEK5  ERSEK        0 0        11.8156 0.00000 0.00000 0.00000 
AFANG 2  HPP FANG     0 2 224.01 0.00000 0.00000 -60.027 -11.551 0.00000 -70.000 5.00000 -17.000 
AFARKA5  FARKA        0 0        37.9457 1.11169 0.00000 0.00000 
AFARRZ5  FUSH ARREZ   0 0        3.70487 2.22339 0.00000 0.00000 
AFIBER5  FIBER        0 0        6.17478 5.55847 0.00000 0.00000 
AFIER 2  FIER 220     0 0        29.9608 0.00000 0.00000 0.00000 
AFIER 5  FIER         0 0        24.6992 -47.803 0.00000 0.00000 
AFIERZ2  HPP FIERZA   0 2 227.47 0.00000 0.00000 -320.00 -48.486 0.00000 -500.00 10.0000 -240.00 
AFIERZ5  FIERZ        0 0        0.00000 0.00000 0.00000 0.00000 
AFKCIM2  FKRUJE       0 0        16.0544 1.11169 0.00000 0.00000 
AFKRUJ5  FUSH KRUJE   0 0        23.4263 2.22339 0.00000 0.00000 
AFKUQE5  FUSH KUQ     0 0        16.6886 2.22339 0.00000 0.00000 
AFRZVJ5  FIERZ VJ     0 0        0.00000 0.00000 0.00000 0.00000 
AGJADR5  HPP GJADER   0 0        0.00000 0.00000 0.00000 0.00000 0.00000 -8.0000 5.00000 -10.000 
AGJIRE5  GJIROKASTE   0 0        15.9724 -1.1117 0.00000 0.00000 
AGJIRO5  GJIROKASTER  0 0        9.87965 0.00000 0.00000 0.00000 
AGJORI5  HPP Gjorice  0 2 115.00 0.00000 0.00000 -10.000 3.36886 0.00000 -12.000 5.00000 -10.000 
AGKUQ 5  GUR KUQ      0 0        1.23495 1.11169 0.00000 0.00000 
AGOLEM5  GOLEM        0 0        8.09826 4.44677 0.00000 0.00000 
AGSA  5  GSA          0 0        27.9585 1.11169 0.00000 0.00000 
AHIMAR5  HIMARE       0 0        2.46992 0.00000 0.00000 0.00000 
AIBE  5  IBE          0 0        3.87535 0.00000 0.00000 0.00000 
AKAFAR5  KAFARAJ      0 0        3.70487 1.11169 0.00000 0.00000 
AKAJAN5  KAJAN        0 0        1.23495 1.11169 0.00000 0.00000 
AKALIM5  KALIMASH     0 0        6.17478 2.22339 0.00000 0.00000 
AKASHA51 KASHAR 51    0 0        93.6097 5.55847 0.00000 0.00000 
AKAVAJ5  KAVAJ        0 0        22.4222 2.22339 0.00000 0.00000 
AKELCY5  KELCYR       0 0        2.46992 1.11169 0.00000 0.00000 
AKOLAC2  KOLAC        0 0        0.00000 0.00000 0.00000 0.00000 
AKOMAN1  HPP KOMAN    0 0        0.00000 0.00000 0.00000 0.00000 0.00000 -300.00 200.000 -320.00 
AKOMAN2  HPP KOMAN    0 2 225.00 0.00000 0.00000 -340.53 200.000 0.00000 -600.00 200.000 -320.00 
AKOMBI5  KOMBINAT     0 0        49.2361 0.00000 0.00000 0.00000 
AKOPLI2  KOPLIK       0 0        12.3495 1.11169 0.00000 0.00000 
AKORCE5  KORCE        0 0        11.1146 4.44677 0.00000 0.00000 
AKOSMC5  KOSMC        0 0        2.65502 0.00000 0.00000 0.00000 
AKRAHS5  KRAHES       0 0        1.23495 0.00000 0.00000 0.00000 
AKRUJE5  KRUJE        0 0        7.39944 0.00000 0.00000 0.00000 
AKUCOV5  KUCOVE       0 0        24.8496 5.55847 0.00000 0.00000 
AKUKES5  KUKES        0 0        6.17478 0.00000 0.00000 0.00000 
AKURBN5  KURBNESH     0 0        0.00000 0.00000 0.00000 0.00000 
ALAC1 5  LAC 1        0 0        9.87962 2.22339 0.00000 0.00000 
ALAC2 5  LAC 2        0 0        4.42644 1.11169 0.00000 0.00000 
ALAJTH5  LAJTHIZE     0 0        0.00000 0.00000 0.00000 0.00000 
ALALEZ5  LALEZ        0 0        1.23495 1.11169 0.00000 0.00000 
ALAPAJ5  HPP LAPAJ    0 2 115.00 0.00000 0.00000 -6.3276 2.10170 0.00000 -12.000 5.00000 -10.000 
ALENGA5  HPP LENGAR   0 2 113.50 0.00000 0.00000 -9.6250 -6.8773 0.00000 -12.000 5.00000 -10.000 
ALEZHA5  LEZHA        0 0        29.3471 10.0052 0.00000 0.00000 
ALIBRZ5  LIBRAZHD     0 2 115.00 11.3735 0.00000 -1.8791 -5.2840 0.00000 -16.000 5.00000 -10.000 
ALUMZI5  HPP Lumezi   0 2 114.88 0.00000 0.00000 -14.137 -10.000 0.00000 -16.000 5.00000 -10.000 
ALURA 5  HPP LURA     0 2 115.00 0.00000 0.00000 -5.0000 -1.8009 0.00000 -16.000 5.00000 -10.000 
ALUSHN5  LUSHNJE      0 0        39.0211 -27.792 0.00000 0.00000 
AMALLA5  HPP MALLA    0 2 115.02 0.00000 0.00000 -5.5924 5.00000 0.00000 -11.000 5.00000 -10.000 
AMAMUR5  MAMURAS      0 0        3.70487 2.22339 0.00000 0.00000 
AMARIN5  MARINZ       0 0        22.5368 0.00000 0.00000 0.00000 
AMEMAL5  MEMALIAJ     0 0        1.23495 1.11169 0.00000 0.00000 
AMOGLI2  HPP MOGLICE  0 2 218.08 0.00000 0.00000 -158.98 18.0000 0.00000 -180.00 18.0000 -67.000 
AORIKU5  ORIKUM       0 0        0.00000 0.00000 0.00000 0.00000 
APERME5  PERMET       0 0        3.70487 1.11169 0.00000 0.00000 
APESHK5  PESHKOPI     0 0        4.93982 2.22339 0.00000 0.00000 
APESHQ2  HPP PESHQESH 0 2 225.48 0.00000 0.00000 -28.486 5.00000 0.00000 -34.000 5.00000 -17.000 
APOGRD5  POGRADEC     0 0        16.3870 4.44677 0.00000 0.00000 
APRELL5  HPP PRELL    0 2 115.00 0.00000 0.00000 -11.143 -10.000 0.00000 -70.000 5.00000 -10.000 
APRENJ5  PRENJAS      0 0        6.24270 0.00000 0.00000 0.00000 
APROMA5  PORTO ROMA   0 0        44.5273 2.22339 0.00000 0.00000 
AQENDE5  QENDER       0 0        58.6098 18.8988 0.00000 0.00000 
ARAPU45  HPP RAPUN 4  0 2 115.00 0.00000 0.00000 -1.8791 1.20867 0.00000 -8.0000 5.00000 -10.000 
ARENCI5  RENCI        0 0        2.46992 1.11169 0.00000 0.00000 
AREPSI5  REPSI        0 0        2.46992 1.11169 0.00000 0.00000 
ARRAZB5  RRAZHBULL2   0 0        0.00000 0.00000 0.00000 0.00000 
ARRAZH2  RRASHBULL    0 0        0.00000 0.00000 0.00000 0.00000 
ARRAZH5  RRAZHBULL1   0 0        0.00000 0.00000 0.00000 0.00000 
ARUBIK5  RUBIK        0 0        2.46992 1.11169 0.00000 0.00000 
ASARAN5  SARANDE      0 0        13.5845 6.67016 0.00000 0.00000 
ASELEN5  SELENIC      0 0        4.93982 1.11169 0.00000 0.00000 
ASELIT5  SELIT        0 0        150.174 28.9040 0.00000 0.00000 
ASETA 5  HPP Seta     0 2 115.09 0.00000 0.00000 -17.799 4.58945 0.00000 -70.000 5.00000 -10.000 
ASHARR2  SHARRE       0 0        14.8194 5.55847 0.00000 0.00000 
ASHARR5  SHARRE       0 0        0.00000 0.00000 0.00000 0.00000 
ASHKD15  SHKODER 1    0 0        35.0229 29.7865 0.00000 0.00000 
ASHKD25  SHKODER 2    0 0        33.0892 11.1169 0.00000 0.00000 
ASHKP15  HPP SHK 1    0 2 113.08 0.00000 0.00000 -10.000 -10.000 0.00000 -12.000 5.00000 -10.000 
ASHKP25  HPP SHK 2    0 0        0.00000 0.00000 0.00000 0.00000 0.00000 -12.000 5.00000 -10.000 
ASHKZT5  SHKOZET      0 0        65.8272 11.1169 0.00000 0.00000 
ASHPEL5  HPP Shpella  0 2 115.00 0.00000 0.00000 -3.5146 2.83177 0.00000 -11.000 5.00000 -10.000 
ASHUPE5  SHUPENZ      0 0        1.23495 0.00000 0.00000 0.00000 
ASHUTR5  SHUTRI       0 0        2.46992 0.00000 0.00000 0.00000 
ASLAB25  HPP Slabinj2 0 2 115.00 0.00000 0.00000 -8.3494 5.00000 0.00000 -16.000 5.00000 -10.000 
ASLABI5  HPP SLABINJ  0 2 115.00 0.00000 0.00000 -10.473 5.00000 0.00000 -11.000 5.00000 -10.000 
ASUC  5  SUC          0 0        0.00000 0.00000 0.00000 0.00000 
ASUKTH5  SUKT         0 0        24.7310 5.55847 0.00000 0.00000 
ATEPEL5  TEPELENE     0 0        1.23495 1.11169 0.00000 0.00000 
ATERNV5  HPP TERNOV   0 0        0.00000 0.00000 0.00000 0.00000 0.00000 -11.000 5.00000 -10.000 
ATIRA21  TIRANA2 400  0 0        0.00000 0.00000 0.00000 0.00000 
ATIRA22  TIRANA2 220  0 0        0.00000 0.00000 0.00000 0.00000 
ATIRA25  TIRANA       0 0        0.00000 0.00000 0.00000 0.00000 
ATIRAN2  TIRANA 220   0 0        110.416 27.7923 0.00000 0.00000 
ATIRAN5  TIRANA       0 0        0.00000 0.00000 0.00000 0.00000 
ATITAN2  TITAN        0 0        13.5845 6.67016 0.00000 0.00000 
ATUNEL5  TUNEL        0 0        0.00000 0.00000 0.00000 0.00000 
AULEZ 5  HPP ULEZ     0 2 113.66 1.23495 0.00000 -18.515 -10.000 0.00000 -25.000 5.00000 -10.000 
AUTRAK5  UZINA TRA    0 0        127.569 7.78185 0.00000 0.00000 
AUZNOV5  UZNOVE       0 0        3.70487 1.11169 0.00000 0.00000 
AVDEJA2  HPP V DEJES  0 2 225.00 0.00000 0.00000 -120.00 -66.876 0.00000 -250.00 10.0000 -150.00 
AVDEJS5  VDEJES 5     0 0        0.00000 0.00000 0.00000 0.00000 
AVDVJT5  VDEJES VJTR  0 0        3.70487 2.22339 0.00000 0.00000 
AVLOR25  VLORA 2      0 0        21.2395 0.00000 0.00000 0.00000 
AVLORE5  VLORE        0 0        0.00000 0.00000 0.00000 0.00000 
AVLOTP2  TPPVLORA     0 0        0.00000 0.00000 0.00000 0.00000 0.00000 -110.00 18.0000 -67.000 
AVOJNI5  VOJNIK       0 0        2.46992 1.11169 0.00000 0.00000 
AZEMLA1  ZEMLAK       0 0        0.00000 120.000 0.00000 0.00000 
AZEMLA5  ZEMBLAK      0 0        0.00000 0.00000 0.00000 0.00000 
##ZBE
BAALNO31 AALNO150     0 0        0.00000 0.00000 0.00000 0.00000 
BAALNO32 AALNO150     0 0        37.7458 8.80096 0.00000 0.00000 
BAALST31 AALST150     0 0        58.8713 17.2401 0.00000 0.00000 
BAALTR31 AALTR150     0 0        23.4179 2.85633 0.00000 0.00000 
BAALTR32 AALTR150     0 0        22.9449 5.19153 0.00000 0.00000 
BACHEN11 ACHEN380     0 0        58.0977 -4.8981 0.00000 0.00000 
BACHEN12 ACHEN380     0 0        0.00000 0.00000 0.00000 0.00000 
BACHES11 ACHES380     0 0        2.70877 -1.8295 0.00000 0.00000 
BAIRLI31 AIRLI150     0 0        17.2280 13.1041 0.00000 0.00000 
BALEGR11 ALEGR380     0 0        0.00000 0.00000 0.00000 0.00000 0.00000 -1000.0 500.000 -500.00 
BALZ  31 ALZ 150      0 0        8.98957 6.16257 0.00000 0.00000 
BALZ  32 ALZ 150      0 0        0.10989 0.98740 0.00000 0.00000 
BALZ  33 ALZ 150      0 0        16.2227 -1.3465 0.00000 0.00000 
BALZ  34 ALZ 150      0 0        29.7497 1.99394 -0.2000 -0.0200 0.00000 -4.6000 0.46000 -1.5180 
BAMERC31 AMERC150     0 0        0.00000 0.00000 0.00000 0.00000 
BAMERC3C AMERC150     0 0        0.00000 0.00000 0.00000 0.00000 
BAMERC3V AMERC 16     0 2 156.31 0.00000 0.00000 -285.80 -7.0304 -96.120 -285.80 66.4700 -156.60 
BAMERC3W AMERC 12     0 2 156.60 0.00000 0.00000 -160.20 -12.849 -53.880 -160.20 25.7500 -85.790 
BAMOCO31 AMOCO150     0 0        65.0999 10.9844 -23.336 -2.3336 
BANDUM1R ANDUM380     0 0        0.00000 0.00000 0.00000 0.00000 
BANDUM30 ANDUM150     0 0        0.00000 0.00000 0.00000 0.00000 
BANDUM31 ANDUM150     0 0        0.00000 0.00000 0.00000 0.00000 
BANDUM32 ANDUM150     0 0        0.00000 0.00000 0.00000 0.00000 
BANDUM33 ANDUM150     0 0        0.00000 0.00000 0.00000 0.00000 
BANS  31 ANS 150      0 0        58.9989 -20.361 0.00000 0.00000 
BANS  32 ANS 150      0 0        4.75969 0.06303 0.00000 0.00000 
BANTOI31 ANTOI150     0 0        47.7576 5.38407 0.00000 0.00000 
BATOFI3A ATOFI150     0 0        10.6792 3.81461 0.00000 0.00000 
BATOFI3B ATOFI150     0 0        0.00000 0.00000 0.00000 0.00000 
BAUBAN11 AUBAN380     0 0        0.00000 0.00000 0.00000 0.00000 
BAUBAN21 AUBAN220     0 0        41.6509 144.745 0.00000 0.00000 
BAUBAN22 AUBAN220     0 0        0.19056 137.900 0.00000 0.00000 
BAUBAN23 AUBAN220     0 0        0.00000 0.00000 0.00000 0.00000 
BAUVEL32 AUVEL150     0 0        12.0572 -5.1674 0.00000 0.00000 
BAUVEL33 AUVEL150     0 0        18.3666 1.06390 0.00000 0.00000 
BAUVEL3R AUVEL150     0 0        18.2133 2.13767 0.00000 0.00000 
BAVERN31 AVERN150     0 2 155.21 9.08415 -1.6767 -4.0000 -6.4506 0.00000 -32.000 6.58000 -27.000 
BAVERN32 AVERN150     0 0        0.12720 79.6573 0.00000 0.00000 
BAVERN3R AVERN150     0 0        0.10779 0.69631 0.00000 0.00000 
BAVERN3S AVERN150     0 0        0.10779 0.69631 0.00000 0.00000 
BAVLGM11 AVLGM380     0 0        0.00000 0.00000 0.00000 0.00000 
BAVLGM12 AVLGM380     0 0        0.00000 0.00000 0.00000 0.00000 
BAVLGM31 AVLGM150     0 0        0.00000 0.00000 0.00000 0.00000 
BAVLGM32 AVLGM150     0 0        0.00000 0.00000 0.00000 0.00000 
BAWIRS21 AWIRS220     0 0        70.1406 6.98205 0.00000 0.00000 
BAWIRS31 AWIRS150     0 0        0.00000 0.00000 0.00000 0.00000 
BAWIRS3W AWIRS 15     0 0        0.00000 0.00000 -74.160 -39.382                 5.41394 -71.960 
BBAISY31 BAISY150     0 0        89.1938 -32.098 0.00000 0.00000 
BBALEN31 BALEN150     0 0        0.00000 0.00000 0.00000 0.00000 
BBALEN32 BALE+150     0 0        0.00000 0.00000 0.00000 0.00000 
BBALEN3R BALEN150     0 0        0.00000 0.00000 0.00000 0.00000 
BBALEN3_ BALEN150     0 0        0.00000 0.00000 0.00000 0.00000 
BBASCO32 BASCO150     0 0        20.8099 1.95410 0.00000 0.00000 
BBASCO3R BASCO150     0 0        0.01512 0.03127 0.00000 0.00000 
BBASF 31 BASF 150     0 0        71.2086 30.3599 -15.995 -1.5995 
BBASF 32 BASF 150     0 0        57.5658 23.7993 0.00000 0.00000 
BBASF 34 BASF 150     0 0        68.1451 9.07080 0.00000 0.00000 
BBASF 3A BASF 150     0 0        61.0831 26.2014 0.00000 0.00000 
BBASF 3B BASF 150     0 0        75.9337 32.4789 0.00000 0.00000 
BBASF 3W BASF 21      0 2 155.96 0.00000 0.00000 -388.00 15.3635 -230.00 -388.00 124.045 -242.26 
BBASF 3_ BASF 150     0 0        0.06751 0.50290 0.00000 0.00000 
BBASSW3R BASSW150     0 0        41.3110 28.8599 0.00000 0.00000 
BBASTO2R BASTO220     0 0        0.02105 0.09254 0.00000 0.00000 
BBATTI3R BATTI150     0 0        19.1664 0.88806 0.00000 0.00000 
BBAUDO31 BAUDO150     0 0        0.00000 0.00000 0.00000 0.00000 
BBAUDO32 BAUDO150     0 0        68.4771 3.35272 0.00000 0.00000 
BBAUDO3W BAUDO 24     0 2 151.62 0.00000 0.00000 -351.50 39.2690 -130.00 -351.50 107.743 -317.88 
BBAYMI3R BAYMI150     0 0        0.00000 0.00000 -0.5771 12.9289 
BBEERS3R BEERS150     0 0        96.5797 12.1906 0.00000 0.00000 
BBEERS3S BEERS150     0 0        0.00000 0.00000 0.00000 0.00000 
BBERIN31 BERIN150     0 0        82.0193 10.2054 0.00000 0.00000 
BBERIN32 BERIN150     0 0        0.00000 0.00000 0.00000 0.00000 
BBERNE21 BERNE220     0 0        0.22864 0.03149 0.00000 0.00000 
BBERST32 BERST150     0 0        10.2359 0.88260 0.00000 0.00000 
BBERST3R BERST150     0 0        10.2305 0.81119 0.00000 0.00000 
BBIFF+22 BIFF+220     0 0        0.00000 0.00000 0.00000 0.00000 
BBINCH31 BINCH150     0 0        12.9090 0.66281 0.00000 0.00000 
BBLANC31 BLANC150     0 0        9.49402 -1.7005 0.00000 0.00000 
BBLANC32 BLANC150     0 0        0.02646 0.07155 0.00000 0.00000 
BBLTOR31 BLTOR150     0 0        0.00000 0.00000 0.00000 0.00000 
BBLTOR32 BLTOR150     0 0        0.00000 0.00000 0.00000 0.00000 
BBOLAL32 BOLAL150     0 0        1.97041 -11.088 0.00000 0.00000 
BBOTCC32 BOTCC150     0 0        0.04942 0.36953 0.00000 0.00000 
BBOTCC3R BOTCC150     0 0        23.3089 -3.8433 0.00000 0.00000 
BBO_HF31 BO_HF150     0 0        2.99990 12.2461 0.00000 0.00000 
BBRAIN31 BRAIN150     0 0        27.1395 2.17075 0.00000 0.00000 
BBRESS31 BRESS150     0 0        0.02310 0.09620 0.00000 0.00000 
BBRESS32 BRESS150     0 0        21.2129 5.66913 0.00000 0.00000 
BBRUEG11 BRUEG 36     0 0        0.00000 0.00000 0.00000 0.00000 
BBRUEG12 BRUEG380     0 0        0.00000 0.00000 0.00000 0.00000 
BBRUEG1A BRUEG380     0 0        0.00000 0.00000 0.00000 0.00000 
BBRUEG1S              0 0        0.00000 0.00000 0.00000 0.00000 
BBRUEG31 BRUEG150     0 0        0.00000 0.00000 0.00000 0.00000 
BBRUEG32 BRUEG150     0 0        0.00000 0.00000 0.00000 0.00000 
BBRUEG3A BRUEG150     0 0        0.00000 0.00000 0.00000 0.00000 
BBRUEG3B BRUEG150     0 0        0.00000 0.00000 0.00000 0.00000 
BBRUGG31 BRUGG150     0 0        60.3517 83.3356 0.00000 0.00000 
BBRUGG32 BRUGG150     0 0        39.4588 7.67215 0.00000 0.00000 
BBRUME11 BRUME380     0 0        0.00000 0.00000 0.00000 0.00000 
BBRUME12 BRUME380     0 0        33.9697 -15.346 0.00000 0.00000 
BBRUME21 BRUME220     0 0        0.00000 0.00000 0.00000 0.00000 
BBRUMS2R BRUMS220     0 0        0.59003 -0.5972 0.00000 0.00000 
BBRUST3R BRUST150     0 0        63.3985 27.7260 0.00000 0.00000 
BBUGG+12 BUGG+380     0 0        0.00000 0.00000 0.00000 0.00000 
BBUGG+1R BUGG+380     0 0        0.00000 0.00000 0.00000 0.00000 
BBUIZI31 BUIZI150     0 0        46.8196 2.35134 0.00000 0.00000 
BBURCH31 BURCH150     0 0        23.0347 -1.6997 0.00000 0.00000 
BBVERW32 BVERW150     0 0        11.2800 -3.1583 0.00000 0.00000 
BBVERW3A BVERW150     0 0        14.4450 -1.2457 -4.5829 -2.3138 
BBVERW3R BVERW150     0 0        0.00000 0.00000 0.00000 0.00000 
BBVREN31 BVREN150     0 0        13.3997 1.39350 0.00000 0.00000 
BBVREN32 BVREN150     0 0        24.8464 3.48858 0.00000 0.00000 
BBWTON31 BWTON150     0 0        36.7873 12.7271 0.00000 0.00000 
BCAMOC31 CAMOC150     0 0        0.01566 0.00760 0.00000 0.00000 
BCARAL3R CARAL150     0 0        1.14580 1.19358 0.00000 0.00000 
BCBR3A32 CBR3A150     0 0        13.9629 4.16273 0.00000 0.00000 
BCBR3A33 CBR3A150     0 0        0.05334 0.33964 0.00000 0.00000 
BCFINF37 CFINF150     0 0        0.00000 0.00000 -43.752 -5.2574 
BCFINF38 CFINF150     0 0        0.00000 0.00000 -87.143 -4.7426 
BCHACO31 CHACO150     0 0        5.18125 -3.1447 0.00000 0.00000 
BCHAMP11 CHAMP380     0 0        69.5112 -18.587 0.00000 0.00000 
BCHAMP12 CHAMP380     0 0        67.4416 14.7424 0.00000 0.00000 
BCHARL3R CHARL150     0 0        0.01683 0.00496 0.00000 0.00000 
BCHARL3S CHARL150     0 0        21.7545 3.76701 0.00000 0.00000 
BCHER+3R CHER+150     0 0        0.00000 0.00000 0.00000 0.00000 
BCHERA34 CHERA150     0 0        2.95732 0.70726 0.00000 0.00000 
BCHERA3R CHERA150     0 0        13.3788 0.72317 0.00000 0.00000 
BCHIEV31 CHIEV150     0 0        8.65687 2.36083 0.00000 0.00000 
BCHIEV32 CHIEV150     0 0        0.00000 0.00000 0.00000 0.00000 
BCKNIP31 CKNIP150     0 0        0.00000 0.00000 0.00000 0.00000 
BCKNIP3W CKNIP 16     0 2 156.08 0.00000 0.00000 -300.00 -7.6224 -215.00 -300.00 76.8036 -320.57 
BCLABE31 CLABE150     0 0        10.3005 2.84208 0.00000 0.00000 
BCLABE3R CLABE150     0 0        0.00000 0.00000 0.00000 0.00000 
BCLABE3S CLABE150     0 0        0.00000 0.00000 0.00000 0.00000 
BCLANG31 CLANG150     0 0        49.1510 9.09300 0.00000 0.00000 
BCLANG32 CLANG150     0 0        49.4392 9.17382 0.00000 0.00000 
BCLANG33 CLANG150     0 0        12.2460 1.75088 0.00000 0.00000 
BCMARE31 CMARE150     0 0        0.01676 0.01481 0.00000 0.00000 
BCMARE3W CMARE 20     0 2 150.81 0.01372 0.09989 -378.00 65.4088 -173.00 -378.00 96.5310 -215.64 
BCOO  11 COO 380      0 0        0.00000 0.00000 0.00000 0.00000 
BCOO  12 COO 380      0 0        0.00000 0.00000 0.00000 0.00000 
BCOO  1R COO 20       0 2 378.95 0.00000 0.00000 -104.10 22.0239 0.00000 -145.00 27.6322 -113.67 
BCOO  1S COO 20       0 0        0.00000 0.00000 0.00000 0.00000 0.00000 -145.00 39.9800 -97.260 
BCOO  1T COO 20       0 0        0.00000 0.00000 0.00000 0.00000 0.00000 -145.00 39.9800 -97.260 
BCOO  1U COO 20       0 2 408.54 0.00000 0.00000 -140.00 -7.6901 0.00000 -215.00 48.1761 -159.21 
BCOO  1V COO 20       0 2 408.32 0.00000 0.00000 -131.00 -6.2338 0.00000 -215.00 49.2815 -157.72 
BCOO  1W COO 20       0 2 408.54 0.00000 0.00000 -140.00 -7.6901 0.00000 -215.00 48.1761 -159.21 
BCORBA3R CORBA150     0 0        10.7733 -4.0072 0.00000 0.00000 
BCOURC11 COURC380     0 0        0.00000 0.00000 0.00000 0.00000 
BCOURC12 COURC380     0 0        0.00000 0.00000 0.00000 0.00000 
BCOURC3R COURC150     0 0        0.00000 0.00000 0.00000 0.00000 
BCQUIN31 CQUIN150     0 0        26.4182 5.55349 0.00000 0.00000 
BCZWIJ31 CZWIJ150     0 0        53.5334 28.8567 0.00000 0.00000 
BCZWIJ32 CZWIJ150     0 0        0.00000 0.00000 0.00000 0.00000 
BCZWIJ3U CZWIJ 11     0 0        0.00000 0.00000 -36.009 -3.3311 -15.571 -37.631 0.26353 -27.935 
BCZWIJ3V CZWIJ 11     0 0        0.00000 0.00000 -36.009 -3.4763 -15.571 -37.631 -1.2429 -34.139 
BCZWIJ3W CZWIJ 11     0 0        0.00000 0.00000 -38.983 -4.9849 -16.857 -40.739 -0.0888 -28.343 
BDAMPL31 DAMPL150     0 0        16.3412 1.79275 0.00000 0.00000 
BDAMPL32 DAMPL150     0 0        16.5113 1.80755 0.00000 0.00000 
BDAMPR31 DAMPR150     0 0        0.00000 0.00000 0.00000 0.00000 
BDAMPR32 DAMPR150     0 0        0.00000 0.00000 0.00000 0.00000 
BDAMPR3R DAMPR150     0 0        0.00000 0.00000 0.00000 0.00000 
BDAMPS35 DAMPS150     0 0        2.95163 -0.7251 0.00000 0.00000 
BDAMPS36 DAMPS150     0 0        2.95130 -0.7250 0.00000 0.00000 
BDEIN+32 DEIN+150     0 0        0.00000 0.00000 0.00000 0.00000 
BDEIN+3R DEIN+150     0 0        0.00000 0.00000 0.00000 0.00000 
BDEINZ31 DEINZ150     0 0        21.8453 4.52644 0.00000 0.00000 
BDEINZ32 DEINZ150     0 0        19.0855 5.16886 0.00000 0.00000 
BDESG+3R DESG+150     0 0        0.00000 0.00000 0.00000 0.00000 
BDESGM31 DESGM150     0 0        21.4967 3.74076 0.00000 0.00000 
BDHANI3A DHANI150     0 0        30.2629 5.42072 0.00000 0.00000 
BDHANI3B DHANI150     0 0        0.00000 0.00000 0.00000 0.00000 
BDHANI3C DHANI150     0 0        48.1602 2.02203 0.00000 0.00000 
BDIEST3R DIEST150     0 0        62.2222 -4.9913 0.00000 0.00000 
BDILB+31 DILB+150     0 0        0.00000 0.00000 0.00000 0.00000 
BDILBE3R DILBE150     0 0        24.7541 -5.2039 0.00000 0.00000 
BDOEL 11 DOEL 380     0 0        0.00000 0.00000 0.00000 0.00000 
BDOEL 12 DOEL 380     0 0        0.00000 0.00000 0.00000 0.00000 
BDOEL 1A DOEL 380     0 0        0.00000 0.00000 0.00000 0.00000 
BDOEL 1B DOEL 380     0 0        0.00000 0.00000 0.00000 0.00000 
BDOEL 1T DOEL 18      0 2 407.22 0.00000 0.00000 -452.60 -106.31 -452.60 -452.60 52.9004 -259.73 
BDOEL 1U DOEL 18      0 2 406.87 0.00000 0.00000 -452.40 -101.54 -452.40 -452.40 52.9195 -259.71 
BDOEL 1V DOEL 24      0 2 407.28 0.00000 0.00000 -1020.0 -208.55 -1020.0 -1020.0 110.350 -560.17 
BDOEL 1W DOEL 24      0 2 401.11 0.00000 0.00000 -1039.0 -145.38 -1039.0 -1039.0 110.770 -575.00 
BDOEL 31 DOEL 150     0 0        0.00000 0.00000 0.00000 0.00000 
BDOEL 32 DOEL 150     0 0        2.08248 0.40977 0.00000 0.00000 
BDOTT+3R DOTT+150     0 0        0.00000 0.00000 0.00000 0.00000 
BDOTTI31 DOTTI150     0 0        9.14638 3.25652 0.00000 0.00000 
BDROGE11 DROGE380     0 0        0.00000 0.00000 0.00000 0.00000 
BDROGE31 DROGE150     0 0        82.3609 38.7822 0.00000 0.00000 
BDROGE33 DROGE150     0 0        59.6905 -11.282 0.00000 0.00000 
BDROGE3U DROGE 15     0 0        0.00000 0.00000 0.00000 0.00000 -61.957 -154.57 36.3300 -140.10 
BDROGE3V DROGE 15     0 0        0.00000 0.00000 0.00000 0.00000 -61.957 -154.57 36.3100 -136.99 
BDROGE3W DROGE 15     0 0        0.00000 0.00000 0.00000 0.00000 -66.087 -164.87 36.3500 -125.52 
BDRONG3R DRONG150     0 0        46.0621 6.03914 0.00000 0.00000 
BEEKLN11 EEKLN380     0 0        0.00000 0.00000 0.00000 0.00000 
BEEKLN31 EEKLN150     0 0        11.0376 -0.7793 0.00000 0.00000 
BEEKLN32 EEKLN150     0 0        0.13408 77.5046 -4.5441 -0.5069 
BEEKLO32 EEKLO150     0 0        23.7668 2.06695 0.00000 0.00000 
BEEKLO3R EEKLO150     0 0        23.9625 2.06830 0.00000 0.00000 
BEISDE32 EISDE150     0 0        41.7277 -10.306 0.00000 0.00000 
BEISDE3A EISDE150     0 0        55.6583 27.4255 0.00000 0.00000 
BEIZE+3R EIZE+150     0 0        0.00000 0.00000 0.00000 0.00000 
BEIZER31 EIZER150     0 0        21.3914 1.46440 0.00000 0.00000 
BEKERE31 EKERE150     0 0        36.6359 -2.5062 0.00000 0.00000 
BESCH 2C ESCH 220     0 0        51.5527 19.5530 0.00000 0.00000 
BESCH 2E ESCH 220     0 0        0.00000 0.00000 0.00000 0.00000 
BESSO 31 ESSO 150     0 0        25.4230 16.1912 0.00000 0.00000 
BESSO 32 ESSO 150     0 0        33.9163 17.8764 0.00000 0.00000 
BESSO 3K ESSO 150     0 0        0.00000 0.00000 0.00000 0.00000 
BESSO 3W ESSO 15      0 0        0.00000 0.00000 -78.000 -4.4325 -78.000 -78.000 5.56531 -69.661 
BESSO+32 ESSO+150     0 0        0.00000 0.00000 0.00000 0.00000 
BESSO+3R ESSO+150     0 0        0.00000 0.00000 0.00000 0.00000 
BESSOC31 ESSOC150     0 0        17.1362 3.91870 0.00000 0.00000 
BESSOC32 ESSOC150     0 0        20.2936 6.43857 0.00000 0.00000 
BEUPEN32 EUPEN150     0 0        28.4110 8.19681 0.00000 0.00000 
BEUPEN3R EUPEN150     0 0        30.5792 -14.089 0.00000 0.00000 
BFAFER31 FAFER150     0 0        8.74925 7.90718 0.00000 0.00000 
BFAFER3R FAFER150     0 0        57.7513 2.44583 0.00000 0.00000 
BFARCI32 FARCI150     0 0        0.01538 0.03180 0.00000 0.00000 
BFARCI3R FARCI150     0 0        17.7913 1.44981 0.00000 0.00000 
BFELUY3R FELUY150     0 0        8.19178 0.41433 0.00000 0.00000 
BFIBER3R FIBER150     0 0        13.0588 4.51553 0.00000 0.00000 
BFLEUR31 FLEUR150     0 0        3.63975 -0.0056 0.00000 0.00000 
BFLEUR32 FLEUR150     0 0        17.1083 1.51589 0.00000 0.00000 
BFLORA32 FLORA150     0 0        44.1134 3.73417 0.00000 0.00000 
BFLORA3R FLORA150     0 0        44.1137 3.74778 0.00000 0.00000 
BFOC  3R FOC 150      0 0        31.4698 14.9494 0.00000 0.00000 
BFOC+ 3R FOC+ 150     0 0        0.00000 0.00000 0.00000 0.00000 
BFONT+3  FONT+150     0 0        0.00000 0.00000 0.00000 0.00000 
BFONTA32 FONTA150     0 0        11.0210 0.19335 0.00000 0.00000 
BFONTA33 FONTA150     0 0        0.01570 0.03245 0.00000 0.00000 
BFONTA3R FONT+150     0 0        0.00000 0.00000 0.00000 0.00000 
BFORES3A FORES150     0 0        27.6407 3.41238 0.00000 0.00000 
BFORES3B FORES150     0 0        0.00000 0.00000 0.00000 0.00000 
BGALGE11 GALGE380     0 0        0.00000 0.00000 0.00000 0.00000 
BGASTH3A GASTH150     0 0        65.9106 32.4066 0.00000 0.00000 
BGAURA32 GAURA150     0 0        0.04675 0.20367 0.00000 0.00000 
BGAURA3R GAURA150     0 0        23.2484 10.2392 0.00000 0.00000 
BGENPM31 GENPM150     0 0        8.26510 7.38074 0.00000 0.00000 
BGEZEL11 GEZEL380     0 0        0.20640 129.880 0.00000 0.00000 
BGEZEL12 GEZEL380     0 0        0.20640 129.880 0.00000 0.00000 
BGILLY37 GILLY150     0 0        21.8781 2.79445 0.00000 0.00000 
BGODSH31 GODSH150     0 0        95.5160 22.8197 0.00000 0.00000 
BGOSS+32 GOSS+150     0 0        0.00000 0.00000 0.00000 0.00000 
BGOSS+3R GOSS+150     0 0        0.00000 0.00000 0.00000 0.00000 
BGOSSE31 GOSSE150     0 0        0.03906 0.08379 0.00000 0.00000 
BGOSSE32 GOSSE150     0 0        14.7673 3.47101 0.00000 0.00000 
BGOUY 11 GOUY 380     0 0        0.00000 0.00000 0.00000 0.00000 
BGOUY 12 GOUY 380     0 0        0.00000 0.00000 0.00000 0.00000 
BGOUY 31 GOUY 150     0 0        16.7237 2.37797 0.00000 0.00000 
BGOUY 32 GOUY 150     0 0        75.1948 -9.7921 0.00000 0.00000 
BGRAMM1A GRAMM380     0 0        0.00000 0.00000 0.00000 0.00000 
BGRAMM1B GRAMM380     0 0        0.00000 0.00000 0.00000 0.00000 
BGRAMM1C GRAMM380     0 0        0.00000 0.00000 0.00000 0.00000 
BGRAMM1D GRAMM380     0 0        0.00000 0.00000 0.00000 0.00000 
BGRAMM3A GRAMM150     0 0        0.00000 0.00000 0.00000 0.00000 
BGRAMM3B GRAMM150     0 0        0.00000 0.00000 0.00000 0.00000 
BGRIMB32 GRIMB150     0 0        0.02570 0.05619 0.00000 0.00000 
BGRIMB3R GRIMB150     0 0        24.7638 1.99751 0.00000 0.00000 
BHAM  32 HAM 150      0 0        15.3842 2.20777 0.00000 0.00000 
BHAM  3R HAM 150      0 0        32.9216 13.1336 0.00000 0.00000 
BHARE+32 HARE+150     0 0        0.00000 0.00000 0.00000 0.00000 
BHARE+3R HARE+150     0 0        0.00000 0.00000 0.00000 0.00000 
BHAREL31 HAREL150     0 0        31.9773 -0.1130 0.00000 0.00000 
BHAREL32 HAREL150     0 0        30.4082 -0.4051 0.00000 0.00000 
BHARMI3R HARMI150     0 0        25.3312 27.5296 0.00000 0.00000 
BHARWI3R HARWI150     0 0        0.00000 0.00000 0.00000 0.00000 
BHARYD31 HARYD150     0 0        23.4675 2.83758 0.00000 0.00000 
BHAVE731 HAVE7150     0 0        10.9798 0.66817 0.00000 0.00000 
BHAVE732 HAVE7150     0 0        14.6487 1.53757 0.00000 0.00000 
BHBRUG31 HBRUG150     0 0        0.00000 0.00000 0.00000 0.00000 
BHBRUG32 HBRUG150     0 0        0.00000 0.00000 0.00000 0.00000 
BHBRUG33 HBRUG150     0 0        0.00000 0.00000 0.00000 0.00000 
BHBRUG3U HBRUG 15     0 0        0.00000 0.00000 0.00000 0.00000 -62.695 -134.67 53.6900 -99.120 
BHBRUG3V HBRUG 15     0 0        0.00000 0.00000 0.00000 0.00000 -62.416 -134.07 53.6900 -98.030 
BHBRUG3W HBRUG 15     0 0        0.00000 0.00000 0.00000 0.00000 -66.689 -143.25 53.6900 -88.290 
BHDPE 31 HDPE 150     0 0        8.18333 2.54462 0.00000 0.00000 
BHDPE 3A HDPE 150     0 0        0.00000 0.00000 0.00000 0.00000 
BHEIM+32 HEIM+150     0 0        0.00000 0.00000 0.00000 0.00000 
BHEIMO31 HEIMO150     0 0        0.02687 0.01490 0.00000 0.00000 
BHEIMO3R HEIMO150     0 0        0.00000 0.00000 0.00000 0.00000 
BHEIMO3S HEIMO150     0 0        21.5862 1.95367 0.00000 0.00000 
BHEINS23 HEINS220     0 0        23.0584 -9.6455 0.00000 0.00000 
BHEIST31 HEIST150     0 0        20.0969 0.87894 0.00000 0.00000 
BHEIST32 HEIST150     0 0        14.9535 0.61937 0.00000 0.00000 
BHELIA3R HELIA150     0 0        55.5603 21.3094 0.00000 0.00000 
BHERCU32 HERCU150     0 0        18.9581 7.43356 0.00000 0.00000 
BHERCU3R HERCU150     0 0        0.00000 0.00000 0.00000 0.00000 
BHERDE32 HERDE150     0 0        0.02466 0.02269 0.00000 0.00000 
BHERDE3R HERDE150     0 0        12.2011 1.78083 0.00000 0.00000 
BHEULE31 HEULE150     0 0        25.5700 4.41807 0.00000 0.00000 
BHEZE 31 HEZE 150     0 0        80.8247 11.9860 0.00000 0.00000 
BHOEN+32 HOEN+150     0 0        0.00000 0.00000 0.00000 0.00000 
BHOEN+3R HOEN+150     0 0        0.00000 0.00000 0.00000 0.00000 
BHOOGS3R HOOGS150     0 0        27.8221 2.54640 -1.4809 -10.550 
BHORTA11 HORTA380     0 0        0.19500 129.590 0.00000 0.00000 
BHORTA12 HORTA380     0 0        0.00000 0.00000 0.00000 0.00000 
BHOUF+2R HOUF+220     0 0        0.00000 0.00000 0.00000 0.00000 
BHOUFF21 HOUFF220     0 0        0.00000 0.00000 -4.2258 -0.9353 
BHOUT+3R HOUT+150     0 0        0.00000 0.00000 0.00000 0.00000 
BHOUTH31 HOUTH150     0 0        86.8412 21.5467 0.00000 0.00000 
BHSART3R HSART150     0 0        10.8077 -0.3961 0.00000 0.00000 
BIEPER31 IEPER150     0 0        21.4645 -2.7943 -1.6496 -0.1650 
BIEPNO31 IEPNO150     0 0        18.0525 7.21226 0.00000 0.00000 
BIEPNO3R IEPNO150     0 0        11.9718 3.15577 0.00000 0.00000 
BIXELL30 IXELL150     0 0        0.00000 0.00000 0.00000 0.00000 
BIXELL31 IXELL150     0 0        0.00000 0.00000 0.00000 0.00000 
BIXELL32 IXELL150     0 0        0.00000 0.00000 0.00000 0.00000 
BIXELL33 IXELL150     0 0        0.00000 0.00000 0.00000 0.00000 
BIXELL34 IXELL150     0 0        0.00000 0.00000 0.00000 0.00000 
BIXELL35 IXELL150     0 0        0.00000 0.00000 0.00000 0.00000 
BIXELL36 IXELL150     0 0        0.00000 0.00000 0.00000 0.00000 
BIXELL37 IXELL150     0 0        0.00000 0.00000 0.00000 0.00000 
BIXELL38 IXELL150     0 0        46.7206 0.73827 0.00000 0.00000 
BIXELL39 IXELL150     0 0        28.9867 -7.5853 0.00000 0.00000 
BIXELL3A IXELL150     0 0        0.00000 0.00000 0.00000 0.00000 
BIZGEM12 IZGEM380     0 0        0.00000 0.00000 0.00000 0.00000 
BIZGEM1R IZGEM380     0 0        0.00000 0.00000 0.00000 0.00000 
BIZGEM31 IZGEM150     0 0        20.9916 -77.203 0.00000 0.00000 
BIZGEM32 IZGEM150     0 0        9.79602 2.81745 0.00000 0.00000 
BJEMAP3R JEMAP150     0 0        24.3413 4.40859 0.00000 0.00000 
BJUPIL21 JUPIL220     0 0        0.00000 0.00000 0.00000 0.00000 
BJUPIL22 JUPIL220     0 0        0.00000 0.00000 0.00000 0.00000 
BJUPIL32 JUPIL150     0 0        0.00000 0.00000 0.00000 0.00000 
BJUPIL3R JUPIL150     0 0        0.00000 0.00000 0.00000 0.00000 
BKALLO31 KALLO150     0 0        0.07739 0.61569 0.00000 0.00000 
BKALLO32 KALLO150     0 0        0.00000 0.00000 0.00000 0.00000 
BKEER+3R KEER+150     0 0        0.00000 0.00000 0.00000 0.00000 
BKENNE32 KENNE150     0 0        45.5598 4.88327 0.00000 0.00000 
BKENNE3R KENNE150     0 0        46.7386 3.85116 0.00000 0.00000 
BKETEN31 KETEN150     0 0        24.3977 2.40011 -19.884 4.24035 
BKETEN32 KETEN150     0 0        0.00000 0.00000 -30.275 6.41431 
BKOBB+3R KOBB+150     0 0        0.00000 0.00000 0.00000 0.00000 
BKOBBE31 KOBBE150     0 0        19.5694 1.88541 0.00000 0.00000 
BKOKSI31 KOKSI150     0 0        56.3269 5.40857 0.00000 0.00000 
BKOKSI32 KOKSI150     0 0        0.00000 0.00000 0.00000 0.00000 
BKOKSI3A KOKSI150     0 0        35.6560 4.39290 0.00000 0.00000 
BKRUSS31 KRUSS150     0 2 156.41 79.9075 20.5396 -22.000 -49.330 0.00000 -25.000 49.3300 -49.330 
BKRUSS32 KRUSS150     0 0        69.8942 20.2653 0.00000 0.00000 
BKUUR+3R KUUR+150     0 0        0.00000 0.00000 0.00000 0.00000 
BKUURN31 KUURN150     0 0        12.3851 2.39685 0.00000 0.00000 
BLACRO30 LACRO150     0 0        0.00000 0.00000 0.00000 0.00000 
BLACRO31 LACRO150     0 0        0.00000 0.00000 0.00000 0.00000 
BLACRO32 LACRO150     0 0        0.00000 0.00000 0.00000 0.00000 
BLACRO33 LACRO150     0 0        0.00000 0.00000 0.00000 0.00000 
BLACRO34 LACRO150     0 0        0.00000 0.00000 0.00000 0.00000 
BLACRO35 LACRO150     0 0        0.00000 0.00000 0.00000 0.00000 
BLACRO36 LACRO150     0 0        0.00000 0.00000 0.00000 0.00000 
BLACRO37 LACRO150     0 0        0.00000 0.00000 0.00000 0.00000 
BLACRO38 LACRO150     0 0        0.00000 0.00000 0.00000 0.00000 
BLACRO39 LACRO150     0 0        24.5110 3.20473 0.00000 0.00000 
BLACRO3A LACRO150     0 0        0.01522 0.03146 0.00000 0.00000 
BLACRO3B LACRO150     0 0        3.13348 -0.1281 0.00000 0.00000 
BLANAK31 LANAK150     0 0        59.2140 24.2736 -0.6800 -0.0680 0.00000 -1.2000 1.26000 -1.2600 
BLANAK3W LANAK 10     0 2 146.41 22.6038 2.23107 -45.400 -6.5064 -20.000 -45.400 0.72000 -24.000 
BLANDN3R LANDN150     0 0        11.4082 0.47974 0.00000 0.00000 
BLANGE31 LANGE150     0 0        0.00000 0.00000 0.00000 0.00000 
BLANGE32 LANGE150     0 0        0.00000 0.00000 0.00000 0.00000 
BLANLO31 LANLO150     0 0        40.8753 10.1542 0.00000 0.00000 
BLANLO32 LANLO150     0 0        54.3045 6.90654 0.00000 0.00000 
BLATO+2R LATO+220     0 0        0.00000 0.00000 0.00000 0.00000 
BLATOU21 LATOU220     0 0        7.70518 4.56328 0.00000 0.00000 
BLATRO21 LATRO220     0 0        18.5271 2.87784 0.00000 0.00000 
BLATRO22 LATRO220     0 0        18.5271 2.87784 0.00000 0.00000 
BLEES+32 LEES+150     0 0        0.00000 0.00000 0.00000 0.00000 
BLEES+3R LEES+150     0 0        0.00000 0.00000 0.00000 0.00000 
BLEVAL21 LEVAL220     0 0        0.00000 0.00000 0.00000 0.00000 
BLEVAL22 LEVAL220     0 0        0.00000 0.00000 0.00000 0.00000 
BLEVAL2U LEVAL 15     0 0        0.00000 0.00000 0.00000 0.00000 -84.255 -154.95 20.1100 -96.090 
BLEVAL2V LEVAL 15     0 0        0.00000 0.00000 0.00000 0.00000 -84.255 -154.95 20.1100 -96.120 
BLEVAL2W LEVAL 15     0 0        0.00000 0.00000 0.00000 0.00000 -95.489 -175.61 20.1100 -96.090 
BLIEF+1R LIEF+380     0 0        0.00000 0.00000 0.00000 0.00000 
BLIEF+1S LIEF+380     0 0        0.00000 0.00000 0.00000 0.00000 
BLIER 3R LIER 150     0 0        32.2135 14.0001 0.00000 0.00000 
BLIER 3T LIER 150     0 0        54.7707 -0.2464 0.00000 0.00000 
BLIGNE32 LIGNE150     0 0        16.2824 5.09058 0.00000 0.00000 
BLIGNE3R LIGNE150     0 0        30.1426 -1.1096 0.00000 0.00000 
BLILLO11 LILLO380     0 0        0.00000 0.00000 0.00000 0.00000 
BLILLO12 LILLO380     0 0        0.00000 0.00000 0.00000 0.00000 
BLILLO31 LILLO150     0 0        0.06791 0.45186 -0.9808 11.4397 
BLILLO32 LILLO150     0 0        0.00000 0.00000 0.00000 0.00000 
BLILLO33 LILLO150     0 0        0.00000 0.00000 0.00000 0.00000 
BLINT 31 LINT 150     0 0        0.00000 0.00000 0.00000 0.00000 
BLINT 32 LINT 150     0 0        0.00000 0.00000 0.00000 0.00000 
BLINTT12 LINT 380     0 0        0.00000 0.00000 0.00000 0.00000 
BLINTT1R LINT 380     0 0        0.00000 0.00000 0.00000 0.00000 
BLIXHE11 LIXHE380     0 0        0.00000 0.00000 0.00000 0.00000 
BLIXHE12 LIXHE380     0 0        0.00000 0.00000 0.00000 0.00000 
BLIXHE27 LIXHE220     0 0        32.8158 5.90134 0.00000 0.00000 
BLIXHE31 LIXHE150     0 0        0.00000 0.00000 0.00000 0.00000 
BLIXHE32 LIXHE150     0 0        31.3128 -12.532 0.00000 0.00000 
BLOKER31 LOKER150     0 0        43.2287 4.66973 -6.7564 -2.6336 
BLOMME31 LOMME150     0 0        50.2261 2.80507 0.00000 0.00000 
BMACHE31 MACHE150     0 0        69.6589 -6.6565 0.00000 0.00000 
BMACHE32 MACHE150     0 0        25.2522 2.54811 0.00000 0.00000 
BMAERL11 MAERL380     0 0        0.00000 0.00000 0.00000 0.00000 
BMAERL12 MAERL380     0 0        0.00000 0.00000 0.00000 0.00000 
BMALDR32 MALDR150     0 0        46.4493 48.6324 0.00000 0.00000 
BMALDR3R MALDR150     0 0        37.5821 -44.585 0.00000 0.00000 
BMALEC31 MALEC150     0 0        8.00578 2.27753 0.00000 0.00000 
BMALEC32 MALEC150     0 0        7.91138 2.25297 0.00000 0.00000 
BMALLE31 MALLE150     0 0        9.79664 -0.6120 0.00000 0.00000 
BMALLE32 MALLE150     0 0        11.3938 -0.2001 0.00000 0.00000 
BMARC+2R MARC+220     0 0        0.00000 0.00000 0.00000 0.00000 
BMARCO21 MARCO220     0 0        26.8100 -6.1969 0.00000 0.00000 
BMARQ+3R MARQ+150     0 0        0.00000 0.00000 0.00000 0.00000 
BMARQU31 MARQU150     0 0        28.2628 3.70817 0.00000 0.00000 
BMASSE11 MASSE380     0 0        0.00000 0.00000 0.00000 0.00000 
BMASSE12 MASSE380     0 0        0.00000 0.00000 0.00000 0.00000 
BMASSE31 MASSE150     0 0        0.00000 0.00000 0.00000 0.00000 
BMASSE32 MASSE150     0 0        0.00000 0.00000 0.00000 0.00000 
BMCHIN31 MCHIN150     0 0        4.61376 5.63003 0.00000 0.00000 
BMECHL31 MECHL150     0 0        73.5516 11.9958 0.00000 0.00000 
BMECHL32 MECHL150     0 0        0.00000 0.00000 0.00000 0.00000 
BMECHL3R MECHL150     0 0        0.00000 0.00000 0.00000 0.00000 
BMEERH11 MEERH380     0 0        0.00000 0.00000 0.00000 0.00000 
BMEERH12 MEERH380     0 0        0.00000 0.00000 0.00000 0.00000 
BMEERH31 MEERH150     0 0        18.5211 1.12135 0.00000 0.00000 
BMEERH32 MEERH150     0 0        0.00000 0.00000 0.00000 0.00000 
BMEKI+1R MEKI+380     0 0        0.00000 0.00000 0.00000 0.00000 
BMERCA11 MERCA380     0 0        0.00000 0.00000 0.00000 0.00000 
BMERCA12 MERCA380     0 0        0.00000 0.00000 0.00000 0.00000 
BMERCA1A MERCA380     0 0        0.00000 0.00000 0.00000 0.00000 
BMERCA1B MERCA380     0 0        0.00000 0.00000 0.00000 0.00000 
BMERCA31 MERCA150     0 0        0.00000 0.00000 0.00000 0.00000 
BMERCA32 MERCA150     0 0        0.00000 0.00000 0.00000 0.00000 
BMERCH32 MERCH150     0 0        20.1568 -2.6557 0.00000 0.00000 
BMERCH3R MERCH150     0 0        40.2678 -2.9322 0.00000 0.00000 
BMERKS31 MERKS150     0 0        47.8163 4.72425 -4.0930 -6.0251 
BMERKS32 MERKS150     0 0        43.4161 22.2560 0.00000 0.00000 
BMEWST31 MEWST150     0 0        0.00000 0.00000 0.00000 0.00000 
BMEWST32 MEWST150     0 0        20.5265 0.54841 0.00000 0.00000 
BMHIN+3R MHIN+150     0 0        0.00000 0.00000 0.00000 0.00000 
BMIDI 31 MIDI 150     0 0        0.00000 0.00000 0.00000 0.00000 
BMIDI 32 MIDI 150     0 0        18.3328 2.55157 0.00000 0.00000 
BMOEN+32 MOEN+150     0 0        0.00000 0.00000 0.00000 0.00000 
BMOEN+3R MOEN+150     0 0        0.00000 0.00000 0.00000 0.00000 
BMOL  31 MOL 150      0 0        46.6572 -68.842 0.00000 0.00000 
BMOL  32 MOL 150      0 0        55.8022 -3.2250 0.00000 0.00000 
BMOLEN3A MOLEN150     0 0        24.0685 0.45904 0.00000 0.00000 
BMOLEN3B MOLEN150     0 0        47.8317 -1.3439 0.00000 0.00000 
BMOLEN3C MOLEN150     0 0        0.00000 0.00000 0.00000 0.00000 
BMONCE2R MONCE220     0 0        0.00000 0.00000 0.00000 0.00000 
BMONCE31 MONCE150     0 0        25.2857 5.08638 0.00000 0.00000 
BMONCE33 MONCE150     0 0        16.3530 -11.802 0.00000 0.00000 
BMONTI31 MONTI150     0 0        32.0315 5.32572 0.00000 0.00000 
BMORTS31 MORTS150     0 0        22.9889 -1.6433 0.00000 0.00000 
BMORTS32 MORTS150     0 0        5.19209 -1.0642 0.00000 0.00000 
BMOUSC30 MOUSC 10     0 0        27.8788 9.88663 -11.694 -1.1694 
BMOUSC31 MOUSC150     0 0        42.5411 -68.650 0.00000 0.00000 
BMOUSC32 MOUSC150     0 0        0.00000 0.00000 0.00000 0.00000 
BMOUSC33 MOUSC150     0 0        0.00000 0.00000 0.00000 0.00000 
BMZLR+32 MZLR+150     0 0        0.00000 0.00000 0.00000 0.00000 
BMZLR+3R MZLR+150     0 0        0.00000 0.00000 0.00000 0.00000 
BNDOKS31 NDOKS150     0 0        8.32519 -10.569 0.00000 0.00000 
BNDOKS32 NDOKS150     0 0        0.06954 0.44914 0.00000 0.00000 
BNEUVI31 NEUVI150     0 0        13.4219 13.7263 0.00000 0.00000 
BNIEUW31 NIEUW150     0 0        27.7882 7.31196 0.00000 0.00000 
BNIEUW32 NIEUW150     0 0        25.9063 -5.3659 0.00000 0.00000 
BNINO+3R NINO+150     0 0        0.00000 0.00000 0.00000 0.00000 
BNINOV31 NINOV150     0 0        78.6598 30.7545 0.00000 0.00000 
BNINOV32 NINOV150     0 0        16.2217 0.97197 0.00000 0.00000 
BNIVEL31 NIVEL150     0 0        0.03715 0.67888 0.00000 0.00000 
BNIVEL32 NIVEL150     0 0        15.7098 1.71115 0.00000 0.00000 
BNORDL31 NORDL150     0 0        0.00000 0.00000 0.00000 0.00000 
BOBOU+3R OBOU+150     0 0        0.00000 0.00000 0.00000 0.00000 
BOBOUR31 OBOUR150     0 0        31.6449 9.88653 0.00000 0.00000 
BOBOUR32 OBOUR150     0 0        1.51732 0.75937 0.00000 0.00000 
BOELEG32 OELEG150     0 0        9.57003 -0.1065 0.00000 0.00000 
BOELEG3R OELEG150     0 0        9.03263 -0.1367 0.00000 0.00000 
BOISQU31 OISQU150     0 0        78.9096 21.8455 0.00000 0.00000 
BOOSTR31 OOSTR150     0 0        19.2273 6.27529 0.00000 0.00000 
BOS1ST21 OS1ST220     0 0        0.00000 0.00000 0.00000 0.00000 
BOS1ST22 OS1ST220     0 0        0.00000 0.00000 0.00000 0.00000 
BOS2ST21 OS2ST220     0 2 228.13 0.00000 0.00000 -169.13 5.26942 -40.000 -307.00 75.0000 -75.000 
BOUDNA31 OUDNA150     0 0        21.7843 5.13610 0.00000 0.00000 
BOUDNA32 OUDNA150     0 0        20.7990 1.16214 0.00000 0.00000 
BOVERP31 OVERP150     0 0        0.00000 -51.859 0.00000 0.00000 
BPACHE31 PACHE150     0 0        0.00000 0.00000 0.00000 0.00000 
BPACHE32 PACHE150     0 0        7.39170 0.96955 0.00000 0.00000 
BPEKK+32 PEKK+150     0 0        0.00000 0.00000 0.00000 0.00000 
BPEKK+3R PEKK+150     0 0        0.00000 0.00000 0.00000 0.00000 
BPEMA+32 PEMA+150     0 0        0.00000 0.00000 0.00000 0.00000 
BPEMA+3R PEMA+150     0 0        0.00000 0.00000 0.00000 0.00000 
BPEMA231 PEMA2150     0 0        10.0471 50.4794 0.00000 0.00000 
BPEMA232 PEMA2150     0 0        10.0471 45.4794 0.00000 0.00000 
BPEMAR31 PEMAR150     0 0        29.8638 1.42601 0.00000 0.00000 
BPEMAR3B PEMAR150     0 0        42.3973 2.34846 0.00000 0.00000 
BPETRO31 PETRO150     0 0        34.5026 3.40266 0.00000 0.00000 
BPITEM31 PITEM150     0 0        27.2246 7.15170 0.00000 0.00000 
BPITEM32 PITEM150     0 0        13.0052 3.75524 0.00000 0.00000 
BPLATE31 PLATE150     0 0        0.12523 0.80828 0.00000 0.00000 
BPOEDE32 POEDE150     0 0        12.0231 -1.9269 0.00000 0.00000 
BPOEDE3R POEDE150     0 0        10.2490 -0.6488 0.00000 0.00000 
BPONT+3R PONT+150     0 0        0.00000 0.00000 0.00000 0.00000 
BPOPSA30 POPSA150     0 0        14.4753 -1.9198 0.00000 0.00000 
BPORTF31 PORTF150     0 0        34.6305 -6.5414 0.00000 0.00000 
BPORTP31 PORTP150     0 0        22.9789 -30.692 0.00000 0.00000 
BPORTP32 PORTP150     0 0        26.8305 -8.1160 0.00000 0.00000 
BPP3 131 PP3 150      0 0        8.18333 2.54462 0.00000 0.00000 
BPP3 13A PP3 150      0 0        0.00000 0.00000 0.00000 0.00000 
BPRECH31 PRECH150     0 0        41.9169 5.04964 0.00000 0.00000 
BPRECH32 PRECH150     0 0        32.3368 5.55510 0.00000 0.00000 
BPUTTE31 PUTTE150     0 0        0.02467 0.13632 0.00000 0.00000 
BPUTTE32 PUTTE150     0 0        13.5768 -0.0381 0.00000 0.00000 
BQDEME3R QDEME150     0 0        32.4335 14.3632 0.00000 0.00000 
BQUAR+32 QUAR+150     0 0        0.00000 0.00000 0.00000 0.00000 
BQUAR+3R QUAR+150     0 0        0.00000 0.00000 0.00000 0.00000 
BRELE+3R RELE+150     0 0        0.00000 0.00000 0.00000 0.00000 
BRELEG3R RELEG150     0 0        32.7255 15.3102 0.00000 0.00000 
BRHODE31 RHODE150     0 0        26.3489 23.0222 0.00000 0.00000 
BRIJKE31 RIJKE150     0 0        4.81360 0.16306 0.00000 0.00000 
BRIJKE32 RIJKE150     0 0        0.00000 0.00000 0.00000 0.00000 
BRIMIE1R RIMIE380     0 0        0.00000 0.00000 0.00000 0.00000 
BRIMIE21 RIMIE220     0 0        74.4029 34.3178 0.00000 0.00000 
BRIMIE22 RIMIE220     0 0        0.00000 0.00000 0.00000 0.00000 
BRIMIE28 RIMIE220     0 0        0.00000 0.00000 0.00000 0.00000 
BRINGV31 RINGV150     0 0        0.00000 0.00000 0.00000 0.00000 
BRINGV3W RINGV 24     0 2 156.58 0.00000 0.00000 -370.00 -11.515 -146.80 -383.80 1.15921 -205.69 
BRODE+1R RODE+380     0 0        0.00000 0.00000 0.00000 0.00000 
BRODEN11 RODEN380     0 0        0.00000 0.00000 0.00000 0.00000 
BRODEN31 RODEN150     0 0        0.00000 0.00000 0.00000 0.00000 
BRODEN33 RODEN150     0 0        0.00000 0.00000 0.00000 0.00000 
BRODEN3W RODEN 20     0 0        0.00000 0.00000 0.00000 0.00000 -80.000 -225.50 60.8400 -151.23 
BROEVG31 ROEVG150     0 0        0.07587 0.67034 0.00000 0.00000 
BROMSE21 ROMSE220     0 0        84.6877 1.05752 0.00000 0.00000 
BROMSS21 ROMSS220     0 0        3.25248 -2.0697 0.00000 0.00000 
BROMSS22 ROMSS220     0 0        0.04119 0.21837 0.00000 0.00000 
BROUVR21 ROUVR220     0 0        11.1524 -3.2711 0.00000 0.00000 
BRUIEN31 RUIEN150     0 0        0.00000 0.00000 0.00000 0.00000 
BRUIEN32 RUIEN150     0 0        0.00000 -162.36 0.00000 0.00000 
BRUIEN33 RUIEN150     0 0        0.00000 0.00000 0.00000 0.00000 
BRUMBE32 RUMBE150     0 0        23.6037 4.31264 0.00000 0.00000 
BRUMBE3R RUMBE150     0 0        23.6119 4.31132 0.00000 0.00000 
BSART 21 SART 220     0 0        37.1074 -5.6279 0.00000 0.00000 
BSART+21 SART+220     0 0        0.00000 0.00000 0.00000 0.00000 
BSCARB31 SCARB150     0 0        68.9795 8.16103 0.00000 0.00000 
BSCARB32 SCARB150     0 0        26.2835 15.6810 0.00000 0.00000 
BSCHD+32 SCHD+150     0 0        0.00000 0.00000 0.00000 0.00000 
BSCHD+3R SCHD+150     0 0        0.00000 0.00000 0.00000 0.00000 
BSCHED31 SCHED150     0 0        43.7114 50.5147 0.00000 0.00000 
BSCHED32 SCHED150     0 0        32.0954 -12.181 0.00000 0.00000 
BSCHEL31 SCHEL150     0 0        39.0286 -35.085 0.00000 0.00000 0.00000 -0.5000 0.53000 -0.5300 
BSCHEL3_ SCHEL150     0 0        0.00000 0.00000 0.00000 0.00000 
BSCHIF23 SCHIF220     0 0        0.00000 0.00000 0.00000 0.00000 
BSCHIF24 SCHIF220     0 0        0.00000 0.00000 0.00000 0.00000 
BSDALE31 SDALE150     0 0        22.6146 7.18552 0.00000 0.00000 
BSEILL31 SEILL150     0 0        30.7180 8.48929 0.00000 0.00000 
BSENO+2R SENO+220     0 0        0.00000 0.00000 0.00000 0.00000 
BSERAI21 SERAI220     0 0        76.9157 8.59687 0.00000 0.00000 
BSERAI22 SERAI220     0 0        15.2237 18.8863 0.00000 0.00000 
BSIDAL31 SIDAL150     0 0        30.5872 3.14077 0.00000 0.00000 
BSIDMA31 SIDMA150     0 0        0.17444 0.76696 0.00000 0.00000 
BSIDMA32 SIDMA150     0 0        239.110 22.4366 0.00000 0.00000 
BSIKE+32 SIKE+150     0 0        0.00000 0.00000 0.00000 0.00000 
BSIKE+3R SIKE+150     0 0        0.00000 0.00000 0.00000 0.00000 
BSIKEL32 SIKEL150     0 0        7.30960 3.41210 0.00000 0.00000 
BSIKEL3R SIKEL150     0 0        4.97228 3.40081 0.00000 0.00000 
BSJOB 31 SJOB 150     0 0        65.4445 -2.6862 0.00000 0.00000 
BSLAAN31 SLAAN150     0 0        30.1582 5.64305 0.00000 0.00000 
BSLAAN32 SLAAN150     0 0        19.7509 3.84172 0.00000 0.00000 
BSLAAN33 SLAAN150     0 0        0.00000 0.00000 0.00000 0.00000 
BSLAAN34 SLAAN150     0 0        0.00000 0.00000 0.00000 0.00000 
BSLYKE31 SLYKE150     0 0        72.8936 -1.4583 0.00000 0.00000 
BSLYKE32 SLYKE150     0 0        0.13229 76.4705 0.00000 0.00000 
BSMARD21 SMARD220     0 0        7.58457 -0.6128 0.00000 0.00000 
BSMARS23 SMARS220     0 0        0.02221 0.14340 0.00000 0.00000 
BSMARS24 SMARS220     0 0        3.49782 -1.3116 0.00000 0.00000 
BSOLAN30 SOLAN150     0 0        186.377 37.6012 0.00000 0.00000 
BSOLAN31 SOLAN150     0 0        0.09100 0.58783 0.00000 0.00000 
BSOLV231 SOLV2150     0 0        0.00000 0.00000 -4.0980 4.63827 
BSOLV33R SOLV3150     0 0        0.00000 0.00000 -6.8542 2.21192 
BSTAD+32 STAD+150     0 0        0.00000 0.00000 0.00000 0.00000 
BSTAD+3R STAD+150     0 0        0.00000 0.00000 0.00000 0.00000 
BSTALE31 STALE150     0 0        26.7456 3.46865 0.00000 0.00000 
BSTALE32 STALE150     0 0        7.82605 -1.1404 0.00000 0.00000 
BSTAM+1R STAM+380     0 0        0.00000 0.00000 0.00000 0.00000 
BSTBAV31 STBAV150     0 0        88.4123 30.0631 0.00000 0.00000 
BSTEVN11 STEVN380     0 0        0.00000 0.00000 0.00000 0.00000 
BSTEVN12 STEVN380     0 0        0.00000 0.00000 0.00000 0.00000 
BSTEVN1A STEVN380     0 0        0.00000 0.00000 0.00000 0.00000 
BSTEVN1B STEVN380     0 0        0.20618 129.740 0.00000 0.00000 
BSTEVN21 STEVN220     0 0        0.15130 129.406 0.00000 0.00000 
BSTEVN22 STEVN220     0 0        0.15806 129.406 0.00000 0.00000 
BSTEVN2A STEVN220     0 0        0.15707 129.406 0.00000 0.00000 
BSTEVN2B STEVN220     0 0        0.15339 129.406 0.00000 0.00000 
BSTEVN3R STEVN150     0 0        0.00000 0.00000 0.00000 0.00000 
BSTEVN3S STEVN150     0 0        0.00000 0.00000 0.00000 0.00000 
BSTGIL32 STGIL150     0 0        3.05209 10.4201 0.00000 0.00000 
BSTGIL3R STGIL150     0 0        20.5667 0.35851 0.00000 0.00000 
BSTNIK31 STNIK150     0 0        23.3875 3.61113 0.00000 0.00000 
BSTPAU31 STPAU150     0 0        7.17998 -0.1833 0.00000 0.00000 
BSTPAU32 STPAU150     0 0        6.12588 -0.6071 0.00000 0.00000 
BTERGN11 TERGN380     0 0        0.00000 0.00000 0.00000 0.00000 
BTERGN31 TERGN150     0 0        9.61443 -4.5661 0.00000 0.00000 
BTERGN32 TERGN150     0 0        0.00000 0.00000 0.00000 0.00000 
BTERGN3R TERGN150     0 0        0.00000 0.00000 0.00000 0.00000 
BTERL+32 TERL+150     0 0        0.00000 0.00000 0.00000 0.00000 
BTERL+3R TERL+150     0 0        0.00000 0.00000 0.00000 0.00000 
BTERTR3R TERTR150     0 0        25.8454 5.26954 0.00000 0.00000 
BTESSE31 TESSE150     0 0        128.039 78.0067 -12.289 -1.2289 0.00000 -14.500 15.2700 -15.270 
BTESSE32 TESSE150     0 0        0.11839 1.10950 0.00000 0.00000 
BTESSE3W TESSE 19     0 0        0.00000 0.00000 -420.00 -67.846 -240.00 -420.00 56.3704 -171.15 
BTHORN31 THORN150     0 0        0.00068 67.7849 -88.092 1.61084 -30.000 -147.60 17.3765 -63.823 
BTHORN32 THORN150     0 0        0.00068 68.0680 -109.37 1.99987 -109.37 -122.90 19.7514 -78.149 
BTHUIL37 THUIL150     0 0        5.62290 -0.0931 0.00000 0.00000 
BTHYCH3R THYCH150     0 0        11.6813 -5.0387 0.00000 0.00000 
BTIBIS11 TIBIS380     0 0        0.00000 0.00000 0.00000 0.00000 
BTIBIS31 TIBIS150     0 0        0.00000 0.00000 0.00000 0.00000 
BTIELT31 TIELT150     0 0        37.6397 9.62446 0.00000 0.00000 
BTIEN+32 TIEN+150     0 0        0.00000 0.00000 0.00000 0.00000 
BTIEN+3R TIEN+150     0 0        0.00000 0.00000 0.00000 0.00000 
BTIENE32 TIENE150     0 0        83.3142 21.0521 0.00000 0.00000 
BTIENE3R TIENE150     0 0        28.9452 8.41503 0.00000 0.00000 
BTIHA+3R TIHA+150     0 0        0.00000 0.00000 0.00000 0.00000 
BTIHA11N TIHA1380     0 0        0.00000 0.00000 0.00000 0.00000 
BTIHA11S TIHA1380     0 0        0.00000 0.00000 0.00000 0.00000 
BTIHA11V TIHA1 18     0 2 410.33 0.00000 0.00000 -484.80 -72.184 -484.80 -484.80 52.3900 -279.34 
BTIHA11W TIHA1 18     0 2 410.34 0.00000 0.00000 -485.30 -72.334 -485.30 -485.30 52.3900 -279.34 
BTIHA211 TIHA2380     0 0        0.00000 0.00000 0.00000 0.00000 
BTIHA21W TIHA2 24     0 2 408.77 0.00000 0.00000 -1006.4 -120.53 -1006.4 -1006.4 103.690 -568.47 
BTIHA311 TIHA3 24     0 2 407.84 0.00000 0.00000 -958.10 -112.38 -958.10 -958.10 107.062 -583.56 
BTIHA31W TIHA3380     0 0        0.00000 0.00000 0.00000 0.00000 
BTIHAN31 TIHAN150     0 0        0.34080 0.70564 0.00000 0.00000 
BTIHAN32 TIHAN150     0 0        0.00000 0.00000 0.00000 0.00000 
BTRIVI31 TRIVI150     0 0        0.00000 0.00000 0.00000 0.00000 
BTRIVI32 TRIVI150     0 0        0.00000 0.00000 0.00000 0.00000 
BUMBAL32 UMBAL150     0 0        0.03577 0.35225 0.00000 0.00000 
BUMBAL33 UMBAL150     0 0        49.8250 25.7282 0.00000 0.00000 
BUMBAL3R UMBAL150     0 0        73.4163 44.7633 0.00000 0.00000 
BUMHOB31 UMHOB150     0 0        22.9258 3.03365 0.00000 0.00000 
BUMHOB32 UMHOB150     0 0        0.02738 0.02211 0.00000 0.00000 
BUMOVE32 UMOVE150     0 0        8.16464 1.75442 0.00000 0.00000 
BUMOVE3R UMOVE150     0 0        0.00000 0.00000 0.00000 0.00000 
BVALE+3R VALE+150     0 0        0.00000 0.00000 0.00000 0.00000 
BVANYK15 VANYK380     0 0        0.00000 0.00000 0.00000 0.00000 
BVANYK16 VANYK380     0 0        0.00000 0.00000 0.00000 0.00000 
BVANYK17 VANYK380     0 0        0.00000 0.00000 0.00000 0.00000 
BVANYK18 VANYK380     0 0        0.00000 0.00000 0.00000 0.00000 
BVERBR30 VERBR 15     0 0        0.00000 0.00000 0.00000 0.00000 -53.429 -115.00 15.0000 -105.00 
BVERBR32 VERBR150     0 0        0.00000 0.00000 0.00000 0.00000 
BVERBR3A VERBR150     0 0        0.00000 0.00000 0.00000 0.00000 
BVERBR3B VERBR150     0 0        0.00000 0.00000 0.00000 0.00000 
BVERBR3C VERBR150     0 0        0.06306 -0.2535 0.00000 0.00000 
BVERBR3W VERBR 15     0 0        0.00000 0.00000 0.00000 0.00000 -116.57 -250.90 27.1900 -137.96 
BVERBT11 VERBR380     0 0        0.00000 0.00000 0.00000 0.00000 
BVERBT12 VERBR380     0 0        0.00000 0.00000 0.00000 0.00000 
BVHAIN31 VHAIN150     0 0        0.00000 0.00000 0.00000 0.00000 
BVHAIN33 VHAIN150     0 0        14.3973 75.2728 0.00000 0.00000 
BVHAIN34 VHAIN150     0 0        0.00000 0.00000 0.00000 0.00000 
BVHAIN3Z VHAIN150     0 0        0.00000 0.00000 0.00000 0.00000 
BVIEU+32 VIEU+150     0 0        0.00000 0.00000 0.00000 0.00000 
BVIEU+3R VIEU+150     0 0        0.00000 0.00000 0.00000 0.00000 
BVILLE21 VILLE220     0 0        23.6043 -9.0621 0.00000 0.00000 
BVILLE22 VILLE220     0 0        27.0190 -16.504 0.00000 0.00000 
BWALGO32 WALGO150     0 0        16.0233 3.74569 0.00000 0.00000 
BWALGO3R WALGO150     0 0        14.4576 3.59660 0.00000 0.00000 
BWATER3R WATER150     0 0        16.3778 2.03058 0.00000 0.00000 
BWATT+32 WATT+150     0 0        0.00000 0.00000 0.00000 0.00000 
BWATT+3R WATT+150     0 0        0.00000 0.00000 0.00000 0.00000 
BWESPL31 WESPL150     0 0        11.2980 1.25877 0.00000 0.00000 
...